functions/OneTimeScripts/validationAgainstOpenDSS_MATLAB/ieee123_1ph_created/components/PVconfigs/PV100.dss
! 100% of the Load Buses have PVs
New PVSystem.3 phases=1 bus1=3 kV=2.4018 kVA=16 irradiance=1 Pmpp=4.6655 kVAr=0 %cutin=0.1 %cutout=0.1
New PVSystem.4 phases=1 bus1=4 kV=2.4018 kVA=16 irradiance=1 Pmpp=2.3335 kVAr=0 %cutin=0.1 %cutout=0.1
New PVSystem.6 phases=1 bus1=6 kV=2.4018 kVA=16 irradiance=1 Pmpp=4.6655 kVAr=0 %cutin=0.1 %cutout=0.1
New PVSystem.7 phases=1 bus1=7 kV=2.4018 kVA=16 irradiance=1 Pmpp=2.3335 kVAr=0 %cutin=0.1 %cutout=0.1
New PVSystem.8 phases=1 bus1=8 kV=2.4018 kVA=16 irradiance=1 Pmpp=4.6655 kVAr=0 %cutin=0.1 %cutout=0.1
New PVSystem.9 phases=1 bus1=9 kV=2.4018 kVA=16 irradiance=1 Pmpp=2.3335 kVAr=0 %cutin=0.1 %cutout=0.1
New PVSystem.11 phases=1 bus1=11 kV=2.4018 kVA=16 irradiance=1 Pmpp=4.6655 kVAr=0 %cutin=0.1 %cutout=0.1
New PVSystem.12 phases=1 bus1=12 kV=2.4018 kVA=16 irradiance=1 Pmpp=2.3335 kVAr=0 %cutin=0.1 %cutout=0.1
New PVSystem.13 phases=1 bus1=13 kV=2.4018 kVA=16 irradiance=1 Pmpp=4.6655 kVAr=0 %cutin=0.1 %cutout=0.1
New PVSystem.14 phases=1 bus1=14 kV=2.4018 kVA=16 irradiance=1 Pmpp=2.3335 kVAr=0 %cutin=0.1 %cutout=0.1
New PVSystem.18 phases=1 bus1=18 kV=2.4018 kVA=16 irradiance=1 Pmpp=4.6655 kVAr=0 %cutin=0.1 %cutout=0.1
New PVSystem.19 phases=1 bus1=19 kV=2.4018 kVA=16 irradiance=1 Pmpp=2.3335 kVAr=0 %cutin=0.1 %cutout=0.1
New PVSystem.21 phases=1 bus1=21 kV=2.4018 kVA=16 irradiance=1 Pmpp=4.6655 kVAr=0 %cutin=0.1 %cutout=0.1
New PVSystem.22 phases=1 bus1=22 kV=2.4018 kVA=16 irradiance=1 Pmpp=4.6655 kVAr=0 %cutin=0.1 %cutout=0.1
New PVSystem.24 phases=1 bus1=24 kV=2.4018 kVA=16 irradiance=1 Pmpp=4.6655 kVAr=0 %cutin=0.1 %cutout=0.1
New PVSystem.26 phases=1 bus1=26 kV=2.4018 kVA=16 irradiance=1 Pmpp=4.6655 kVAr=0 %cutin=0.1 %cutout=0.1
New PVSystem.30 phases=1 bus1=30 kV=2.4018 kVA=16 irradiance=1 Pmpp=4.6655 kVAr=0 %cutin=0.1 %cutout=0.1
New PVSystem.31 phases=1 bus1=31 kV=2.4018 kVA=16 irradiance=1 Pmpp=4.6655 kVAr=0 %cutin=0.1 %cutout=0.1
New PVSystem.32 phases=1 bus1=32 kV=2.4018 kVA=16 irradiance=1 Pmpp=4.6655 kVAr=0 %cutin=0.1 %cutout=0.1
New PVSystem.33 phases=1 bus1=33 kV=2.4018 kVA=16 irradiance=1 Pmpp=2.3335 kVAr=0 %cutin=0.1 %cutout=0.1
New PVSystem.34 phases=1 bus1=34 kV=2.4018 kVA=16 irradiance=1 Pmpp=2.3335 kVAr=0 %cutin=0.1 %cutout=0.1
New PVSystem.35 phases=1 bus1=35 kV=2.4018 kVA=16 irradiance=1 Pmpp=4.6655 kVAr=0 %cutin=0.1 %cutout=0.1
New PVSystem.36 phases=1 bus1=36 kV=2.4018 kVA=16 irradiance=1 Pmpp=4.6655 kVAr=0 %cutin=0.1 %cutout=0.1
New PVSystem.37 phases=1 bus1=37 kV=2.4018 kVA=16 irradiance=1 Pmpp=4.6655 kVAr=0 %cutin=0.1 %cutout=0.1
New PVSystem.39 phases=1 bus1=39 kV=2.4018 kVA=16 irradiance=1 Pmpp=4.6655 kVAr=0 %cutin=0.1 %cutout=0.1
New PVSystem.40 phases=1 bus1=40 kV=2.4018 kVA=16 irradiance=1 Pmpp=2.3335 kVAr=0 %cutin=0.1 %cutout=0.1
New PVSystem.41 phases=1 bus1=41 kV=2.4018 kVA=16 irradiance=1 Pmpp=2.3335 kVAr=0 %cutin=0.1 %cutout=0.1
New PVSystem.43 phases=1 bus1=43 kV=2.4018 kVA=16 irradiance=1 Pmpp=2.3335 kVAr=0 %cutin=0.1 %cutout=0.1
New PVSystem.44 phases=1 bus1=44 kV=2.4018 kVA=16 irradiance=1 Pmpp=2.3335 kVAr=0 %cutin=0.1 %cutout=0.1
New PVSystem.45 phases=1 bus1=45 kV=2.4018 kVA=16 irradiance=1 Pmpp=4.6655 kVAr=0 %cutin=0.1 %cutout=0.1
New PVSystem.47 phases=1 bus1=47 kV=2.4018 kVA=16 irradiance=1 Pmpp=2.3335 kVAr=0 %cutin=0.1 %cutout=0.1
New PVSystem.48 phases=1 bus1=48 kV=2.4018 kVA=16 irradiance=1 Pmpp=2.3335 kVAr=0 %cutin=0.1 %cutout=0.1
New PVSystem.49 phases=1 bus1=49 kV=2.4018 kVA=16 irradiance=1 Pmpp=12.25 kVAr=0 %cutin=0.1 %cutout=0.1
New PVSystem.50 phases=1 bus1=50 kV=2.4018 kVA=32 irradiance=1 Pmpp=24.5 kVAr=0 %cutin=0.1 %cutout=0.1
New PVSystem.51 phases=1 bus1=51 kV=2.4018 kVA=32 irradiance=1 Pmpp=16.3345 kVAr=0 %cutin=0.1 %cutout=0.1
New PVSystem.52 phases=1 bus1=52 kV=2.4018 kVA=16 irradiance=1 Pmpp=4.6655 kVAr=0 %cutin=0.1 %cutout=0.1
New PVSystem.53 phases=1 bus1=53 kV=2.4018 kVA=16 irradiance=1 Pmpp=2.3335 kVAr=0 %cutin=0.1 %cutout=0.1
New PVSystem.54 phases=1 bus1=54 kV=2.4018 kVA=16 irradiance=1 Pmpp=4.6655 kVAr=0 %cutin=0.1 %cutout=0.1
New PVSystem.55 phases=1 bus1=55 kV=2.4018 kVA=16 irradiance=1 Pmpp=4.6655 kVAr=0 %cutin=0.1 %cutout=0.1
New PVSystem.57 phases=1 bus1=57 kV=2.4018 kVA=16 irradiance=1 Pmpp=2.3335 kVAr=0 %cutin=0.1 %cutout=0.1
New PVSystem.58 phases=1 bus1=58 kV=2.4018 kVA=16 irradiance=1 Pmpp=2.3335 kVAr=0 %cutin=0.1 %cutout=0.1
New PVSystem.60 phases=1 bus1=60 kV=2.4018 kVA=16 irradiance=1 Pmpp=2.3335 kVAr=0 %cutin=0.1 %cutout=0.1
New PVSystem.61 phases=1 bus1=61 kV=2.4018 kVA=16 irradiance=1 Pmpp=2.3335 kVAr=0 %cutin=0.1 %cutout=0.1
New PVSystem.62 phases=1 bus1=62 kV=2.4018 kVA=16 irradiance=1 Pmpp=2.3335 kVAr=0 %cutin=0.1 %cutout=0.1
New PVSystem.64 phases=1 bus1=64 kV=2.4018 kVA=16 irradiance=1 Pmpp=4.6655 kVAr=0 %cutin=0.1 %cutout=0.1
New PVSystem.65 phases=1 bus1=65 kV=2.4018 kVA=16 irradiance=1 Pmpp=4.6655 kVAr=0 %cutin=0.1 %cutout=0.1
New PVSystem.66 phases=1 bus1=66 kV=2.4018 kVA=16 irradiance=1 Pmpp=8.75 kVAr=0 %cutin=0.1 %cutout=0.1
New PVSystem.67 phases=1 bus1=67 kV=2.4018 kVA=32 irradiance=1 Pmpp=16.3345 kVAr=0 %cutin=0.1 %cutout=0.1
New PVSystem.68 phases=1 bus1=68 kV=2.4018 kVA=16 irradiance=1 Pmpp=8.75 kVAr=0 %cutin=0.1 %cutout=0.1
New PVSystem.70 phases=1 bus1=70 kV=2.4018 kVA=16 irradiance=1 Pmpp=2.3335 kVAr=0 %cutin=0.1 %cutout=0.1
New PVSystem.71 phases=1 bus1=71 kV=2.4018 kVA=16 irradiance=1 Pmpp=4.6655 kVAr=0 %cutin=0.1 %cutout=0.1
New PVSystem.72 phases=1 bus1=72 kV=2.4018 kVA=16 irradiance=1 Pmpp=2.3335 kVAr=0 %cutin=0.1 %cutout=0.1
New PVSystem.73 phases=1 bus1=73 kV=2.4018 kVA=16 irradiance=1 Pmpp=4.6655 kVAr=0 %cutin=0.1 %cutout=0.1
New PVSystem.75 phases=1 bus1=75 kV=2.4018 kVA=16 irradiance=1 Pmpp=4.6655 kVAr=0 %cutin=0.1 %cutout=0.1
New PVSystem.76 phases=1 bus1=76 kV=2.4018 kVA=16 irradiance=1 Pmpp=4.6655 kVAr=0 %cutin=0.1 %cutout=0.1
New PVSystem.77 phases=1 bus1=77 kV=2.4018 kVA=16 irradiance=1 Pmpp=4.6655 kVAr=0 %cutin=0.1 %cutout=0.1
New PVSystem.78 phases=1 bus1=78 kV=2.4018 kVA=32 irradiance=1 Pmpp=28.5845 kVAr=0 %cutin=0.1 %cutout=0.1
New PVSystem.79 phases=1 bus1=79 kV=2.4018 kVA=16 irradiance=1 Pmpp=4.6655 kVAr=0 %cutin=0.1 %cutout=0.1
New PVSystem.81 phases=1 bus1=81 kV=2.4018 kVA=16 irradiance=1 Pmpp=4.6655 kVAr=0 %cutin=0.1 %cutout=0.1
New PVSystem.82 phases=1 bus1=82 kV=2.4018 kVA=16 irradiance=1 Pmpp=4.6655 kVAr=0 %cutin=0.1 %cutout=0.1
New PVSystem.84 phases=1 bus1=84 kV=2.4018 kVA=16 irradiance=1 Pmpp=4.6655 kVAr=0 %cutin=0.1 %cutout=0.1
New PVSystem.85 phases=1 bus1=85 kV=2.4018 kVA=16 irradiance=1 Pmpp=2.3335 kVAr=0 %cutin=0.1 %cutout=0.1
New PVSystem.86 phases=1 bus1=86 kV=2.4018 kVA=16 irradiance=1 Pmpp=2.3335 kVAr=0 %cutin=0.1 %cutout=0.1
New PVSystem.87 phases=1 bus1=87 kV=2.4018 kVA=16 irradiance=1 Pmpp=4.6655 kVAr=0 %cutin=0.1 %cutout=0.1
New PVSystem.88 phases=1 bus1=88 kV=2.4018 kVA=16 irradiance=1 Pmpp=2.3335 kVAr=0 %cutin=0.1 %cutout=0.1
New PVSystem.89 phases=1 bus1=89 kV=2.4018 kVA=16 irradiance=1 Pmpp=4.6655 kVAr=0 %cutin=0.1 %cutout=0.1
New PVSystem.90 phases=1 bus1=90 kV=2.4018 kVA=16 irradiance=1 Pmpp=4.6655 kVAr=0 %cutin=0.1 %cutout=0.1
New PVSystem.92 phases=1 bus1=92 kV=2.4018 kVA=16 irradiance=1 Pmpp=4.6655 kVAr=0 %cutin=0.1 %cutout=0.1
New PVSystem.94 phases=1 bus1=94 kV=2.4018 kVA=16 irradiance=1 Pmpp=4.6655 kVAr=0 %cutin=0.1 %cutout=0.1
New PVSystem.96 phases=1 bus1=96 kV=2.4018 kVA=16 irradiance=1 Pmpp=4.6655 kVAr=0 %cutin=0.1 %cutout=0.1
New PVSystem.97 phases=1 bus1=97 kV=2.4018 kVA=16 irradiance=1 Pmpp=2.3335 kVAr=0 %cutin=0.1 %cutout=0.1
New PVSystem.98 phases=1 bus1=98 kV=2.4018 kVA=16 irradiance=1 Pmpp=2.3335 kVAr=0 %cutin=0.1 %cutout=0.1
New PVSystem.100 phases=1 bus1=100 kV=2.4018 kVA=16 irradiance=1 Pmpp=4.6655 kVAr=0 %cutin=0.1 %cutout=0.1
New PVSystem.101 phases=1 bus1=101 kV=2.4018 kVA=16 irradiance=1 Pmpp=4.6655 kVAr=0 %cutin=0.1 %cutout=0.1
New PVSystem.102 phases=1 bus1=102 kV=2.4018 kVA=16 irradiance=1 Pmpp=4.6655 kVAr=0 %cutin=0.1 %cutout=0.1
New PVSystem.104 phases=1 bus1=104 kV=2.4018 kVA=16 irradiance=1 Pmpp=2.3335 kVAr=0 %cutin=0.1 %cutout=0.1
New PVSystem.105 phases=1 bus1=105 kV=2.4018 kVA=16 irradiance=1 Pmpp=4.6655 kVAr=0 %cutin=0.1 %cutout=0.1
New PVSystem.106 phases=1 bus1=106 kV=2.4018 kVA=16 irradiance=1 Pmpp=4.6655 kVAr=0 %cutin=0.1 %cutout=0.1
New PVSystem.108 phases=1 bus1=108 kV=2.4018 kVA=16 irradiance=1 Pmpp=4.6655 kVAr=0 %cutin=0.1 %cutout=0.1
New PVSystem.109 phases=1 bus1=109 kV=2.4018 kVA=16 irradiance=1 Pmpp=4.6655 kVAr=0 %cutin=0.1 %cutout=0.1
New PVSystem.111 phases=1 bus1=111 kV=2.4018 kVA=16 irradiance=1 Pmpp=4.6655 kVAr=0 %cutin=0.1 %cutout=0.1
New PVSystem.113 phases=1 bus1=113 kV=2.4018 kVA=16 irradiance=1 Pmpp=2.3335 kVAr=0 %cutin=0.1 %cutout=0.1
New PVSystem.114 phases=1 bus1=114 kV=2.4018 kVA=16 irradiance=1 Pmpp=2.3335 kVAr=0 %cutin=0.1 %cutout=0.1
New PVSystem.115 phases=1 bus1=115 kV=2.4018 kVA=16 irradiance=1 Pmpp=4.6655 kVAr=0 %cutin=0.1 %cutout=0.1
New PVSystem.116 phases=1 bus1=116 kV=2.4018 kVA=16 irradiance=1 Pmpp=2.3335 kVAr=0 %cutin=0.1 %cutout=0.1

